Version 4
SHEET 1 2580 1252
WIRE -80 176 -80 80
WIRE 160 192 112 192
WIRE 496 208 480 208
WIRE 112 224 112 192
WIRE 896 224 896 160
WIRE 1024 224 1024 160
WIRE 1152 224 1152 160
WIRE 80 240 0 240
WIRE 336 256 144 256
WIRE -80 272 -80 256
WIRE 0 272 0 240
WIRE 0 272 -80 272
WIRE 32 272 32 144
WIRE 80 272 32 272
WIRE -80 304 -80 272
WIRE 112 304 112 288
WIRE 160 304 112 304
WIRE 480 320 480 208
WIRE 160 352 112 352
WIRE 336 352 336 256
WIRE 400 352 336 352
WIRE 896 352 896 304
WIRE 1024 352 1024 304
WIRE 1152 352 1152 304
WIRE 112 368 112 352
WIRE 80 384 -32 384
WIRE 400 400 144 400
WIRE 608 400 560 400
WIRE 32 416 32 272
WIRE 80 416 32 416
WIRE -80 432 -80 384
WIRE -32 432 -32 384
WIRE -32 432 -80 432
WIRE -80 448 -80 432
WIRE 112 448 112 432
WIRE 144 448 112 448
WIRE 400 448 336 448
WIRE 608 448 560 448
WIRE 160 496 112 496
WIRE 400 496 368 496
WIRE 112 512 112 496
WIRE 80 528 -16 528
WIRE 960 528 960 464
WIRE 1104 528 1104 464
WIRE 336 544 336 448
WIRE 336 544 144 544
WIRE -80 560 -80 528
WIRE -16 560 -16 528
WIRE -16 560 -80 560
WIRE 32 560 32 416
WIRE 80 560 32 560
WIRE -80 592 -80 560
WIRE 112 592 112 576
WIRE 160 592 112 592
WIRE 368 624 368 496
WIRE 480 624 480 528
WIRE 480 624 368 624
WIRE 480 656 480 624
WIRE 960 656 960 608
WIRE 1104 656 1104 608
WIRE -80 720 -80 672
FLAG -80 720 0
FLAG -80 80 Vref
FLAG 32 144 Vin
FLAG 1024 352 0
FLAG 1024 160 Vdd
FLAG 608 400 Y1
FLAG 608 448 Y0
FLAG 480 656 0
FLAG 896 352 0
FLAG 896 160 Vref
FLAG 1152 352 0
FLAG 1152 160 Vin
FLAG 496 208 Vdd
FLAG 960 656 0
FLAG 960 464 Vop
FLAG 160 192 Vop
FLAG 160 496 Vop
FLAG 1104 656 0
FLAG 1104 464 Von
FLAG 160 592 Von
FLAG 144 448 Von
FLAG 160 304 Von
FLAG 160 352 Vop
SYMBOL OpAmps\\AD549 112 192 R0
WINDOW 3 -66 19 Left 2
SYMATTR InstName U1
SYMBOL res -96 160 R0
SYMATTR InstName R1
SYMATTR Value 1k
SYMBOL res -96 288 R0
SYMATTR InstName R2
SYMATTR Value 1k
SYMBOL res -96 432 R0
SYMATTR InstName R3
SYMATTR Value 1k
SYMBOL res -96 576 R0
SYMATTR InstName R4
SYMATTR Value 1k
SYMBOL priority_encoder 464 416 R0
SYMATTR InstName X2
SYMBOL voltage 1024 208 R0
WINDOW 123 0 0 Left 0
WINDOW 39 0 0 Left 0
SYMATTR InstName V1
SYMATTR Value 1
SYMBOL voltage 896 208 R0
WINDOW 123 0 0 Left 0
WINDOW 39 0 0 Left 0
SYMATTR InstName V2
SYMATTR Value 4
SYMBOL voltage 1152 208 R0
WINDOW 123 0 0 Left 0
WINDOW 39 0 0 Left 0
SYMATTR InstName V3
SYMATTR Value SINE(0 4 1k 0 0 0 4)
SYMBOL OpAmps\\AD549 112 336 R0
WINDOW 3 -73 29 Left 2
SYMATTR InstName U4
SYMBOL OpAmps\\AD549 112 480 R0
WINDOW 3 -57 63 Left 2
SYMATTR InstName U5
SYMBOL voltage 960 512 R0
WINDOW 123 0 0 Left 0
WINDOW 39 0 0 Left 0
SYMATTR InstName V4
SYMATTR Value 15
SYMBOL voltage 1104 624 R180
WINDOW 123 0 0 Left 0
WINDOW 39 0 0 Left 0
SYMATTR InstName V8
SYMATTR Value 15
TEXT 968 760 Left 2 !.tran 2.5m
