Version 4
SHEET 1 1840 712
WIRE 768 -112 752 -112
WIRE 752 -48 752 -112
WIRE 176 -32 32 -32
WIRE 688 -32 176 -32
WIRE 704 -32 688 -32
WIRE 864 -16 816 -16
WIRE 816 0 816 -16
WIRE 816 0 800 0
WIRE 304 16 288 16
WIRE 688 16 640 16
WIRE 288 32 288 16
WIRE 544 32 528 32
WIRE 688 32 688 16
WIRE 528 64 528 32
WIRE 752 80 752 48
WIRE 784 80 752 80
WIRE 128 96 32 96
WIRE 240 96 128 96
WIRE 464 96 368 96
WIRE 640 128 640 16
WIRE 640 128 592 128
WIRE 464 160 368 160
WIRE 288 176 288 160
WIRE 304 176 288 176
WIRE 80 208 32 208
WIRE 368 208 368 160
WIRE 368 208 80 208
WIRE 528 224 528 192
WIRE 544 224 528 224
WIRE 336 288 320 288
WIRE 736 320 720 320
WIRE 928 320 912 320
WIRE 320 336 320 288
WIRE 176 352 176 -32
WIRE 256 352 176 352
WIRE 560 368 384 368
WIRE 864 368 560 368
WIRE 384 384 384 368
WIRE 384 384 368 384
WIRE 128 400 128 96
WIRE 256 400 128 400
WIRE 720 400 720 320
WIRE 256 416 256 400
WIRE 560 416 560 368
WIRE 656 416 560 416
WIRE 672 416 656 416
WIRE 912 416 912 320
WIRE 848 432 784 432
WIRE 864 432 848 432
WIRE 784 448 784 432
WIRE 784 448 768 448
WIRE 1024 448 976 448
WIRE 80 464 80 208
WIRE 656 464 80 464
WIRE 976 464 976 448
WIRE 976 464 960 464
WIRE 656 480 656 464
WIRE 320 496 320 432
WIRE 336 496 320 496
WIRE 848 496 816 496
WIRE 720 528 720 496
WIRE 736 528 720 528
WIRE 912 544 912 512
WIRE 928 544 912 544
WIRE 816 608 816 496
WIRE 816 608 32 608
FLAG 32 208 D1
FLAG 32 96 D2
FLAG 32 -32 D3
FLAG 32 608 D0
FLAG 864 -16 Y0
FLAG 864 368 Y1
FLAG 1024 448 V
FLAG 304 16 Vdd
FLAG 544 32 Vdd
FLAG 768 -112 Vdd
FLAG 736 320 Vdd
FLAG 928 320 Vdd
FLAG 336 288 Vdd
FLAG 304 176 Vss
FLAG 544 224 Vss
FLAG 784 80 Vss
FLAG 736 528 Vss
FLAG 336 496 Vss
FLAG 928 544 Vss
SYMBOL or 768 -16 R0
SYMATTR InstName X5
SYMBOL and 528 128 R0
SYMATTR InstName X6
SYMBOL not 272 96 R0
SYMATTR InstName X7
SYMBOL or 336 368 R0
SYMATTR InstName X8
SYMBOL or 736 432 R0
SYMATTR InstName X9
SYMBOL or 928 448 R0
SYMATTR InstName X1
