Version 4
SHEET 1 880 680
WIRE 48 -144 -816 -144
WIRE -704 -80 -720 -80
WIRE -720 -48 -720 -80
WIRE -480 -48 -496 -48
WIRE -816 -16 -816 -144
WIRE -784 -16 -816 -16
WIRE -496 -16 -496 -48
WIRE -112 -16 -128 -16
WIRE -560 16 -656 16
WIRE -128 16 -128 -16
WIRE -784 48 -864 48
WIRE -192 48 -432 48
WIRE -560 80 -608 80
WIRE -16 80 -64 80
WIRE 80 80 -16 80
WIRE 112 80 80 80
WIRE -720 112 -720 80
WIRE -704 112 -720 112
WIRE -192 112 -272 112
WIRE -496 144 -496 112
WIRE -480 144 -496 144
WIRE -128 176 -128 144
WIRE -112 176 -128 176
WIRE -272 192 -272 112
WIRE 16 192 -272 192
WIRE -608 224 -608 80
WIRE -608 224 -656 224
WIRE -16 272 -16 80
WIRE -16 272 -272 272
WIRE -112 304 -128 304
WIRE -480 336 -496 336
WIRE -128 336 -128 304
WIRE -704 368 -720 368
WIRE -496 368 -496 336
WIRE -272 368 -272 272
WIRE -192 368 -272 368
WIRE -720 400 -720 368
WIRE -608 400 -608 224
WIRE -560 400 -608 400
WIRE 16 400 16 192
WIRE 16 400 -64 400
WIRE 48 400 48 -144
WIRE 48 400 16 400
WIRE 112 400 48 400
WIRE -784 432 -864 432
WIRE -192 432 -432 432
WIRE -560 464 -656 464
WIRE -784 496 -816 496
WIRE -128 496 -128 464
WIRE -112 496 -128 496
WIRE -496 528 -496 496
WIRE -480 528 -496 528
WIRE -720 560 -720 528
WIRE -704 560 -720 560
WIRE -816 624 -816 496
WIRE 80 624 80 80
WIRE 80 624 -816 624
FLAG -480 -48 Vdd
FLAG -480 144 Vss
FLAG -112 -16 Vdd
FLAG -112 176 Vss
FLAG -480 528 Vss
FLAG -112 496 Vss
FLAG -112 304 Vdd
FLAG -480 336 Vdd
FLAG 112 80 Q
FLAG 112 400 ~Q
FLAG -656 224 clk
FLAG -704 -80 Vdd
FLAG -704 112 Vss
FLAG -704 368 Vdd
FLAG -704 560 Vss
FLAG -864 48 J
FLAG -864 432 K
SYMBOL nand -496 64 R0
SYMATTR InstName X3
SYMBOL nand -496 448 R0
SYMATTR InstName X4
SYMBOL nand -128 96 R0
SYMATTR InstName X5
SYMBOL nand -128 416 R0
SYMATTR InstName X6
SYMBOL and -720 464 R0
SYMATTR InstName X7
SYMBOL and -720 16 R0
SYMATTR InstName X1
